output/1_QUEB_1/Cargas_BT_DO12_1_QUEB_1.dss
New "Load.BT_233150_M1" bus1="UC233150.1.2.3.4" phases=3 conn=delta model=2 kv=0.38 kw = 1.2230262847901459 pf=0.92 status=variable vmaxpu=1.5 vminpu=0.93 daily="RU8_DO" 
New "Load.BT_233150_M2" bus1="UC233150.1.2.3.4" phases=3 conn=delta model=3 kv=0.38 kw = 1.2230262847901459 pf=0.92 status=variable vmaxpu=1.5 vminpu=0.93 daily="RU8_DO"
 
New "Load.BT_233144_M1" bus1="UC233144.1.2.4" phases=2 conn=delta model=2 kv=0.38 kw = 0.26593198723082784 pf=0.92 status=variable vmaxpu=1.5 vminpu=0.93 daily="RU5_DO" 
New "Load.BT_233144_M2" bus1="UC233144.1.2.4" phases=2 conn=delta model=3 kv=0.38 kw = 0.26593198723082784 pf=0.92 status=variable vmaxpu=1.5 vminpu=0.93 daily="RU5_DO"
 
New "Load.BT_232530_M1" bus1="UC232530.1.2.4" phases=2 conn=delta model=2 kv=0.38 kw = 0.22879827910799927 pf=0.92 status=variable vmaxpu=1.5 vminpu=0.93 daily="RU3_DO" 
New "Load.BT_232530_M2" bus1="UC232530.1.2.4" phases=2 conn=delta model=3 kv=0.38 kw = 0.22879827910799927 pf=0.92 status=variable vmaxpu=1.5 vminpu=0.93 daily="RU3_DO"
 
New "Load.BT_231938_M1" bus1="UC231938.1.4" phases=1 conn=delta model=2 kv=0.22 kw = 0.21037346678607682 pf=0.92 status=variable vmaxpu=1.5 vminpu=0.93 daily="RU6_DO" 
New "Load.BT_231938_M2" bus1="UC231938.1.4" phases=1 conn=delta model=3 kv=0.22 kw = 0.21037346678607682 pf=0.92 status=variable vmaxpu=1.5 vminpu=0.93 daily="RU6_DO"
 
New "Load.BT_2831932_M1" bus1="UC2831932.1.4" phases=1 conn=delta model=2 kv=0.22 kw = 0.02542203101199992 pf=0.92 status=variable vmaxpu=1.5 vminpu=0.93 daily="RU3_DO" 
New "Load.BT_2831932_M2" bus1="UC2831932.1.4" phases=1 conn=delta model=3 kv=0.22 kw = 0.02542203101199992 pf=0.92 status=variable vmaxpu=1.5 vminpu=0.93 daily="RU3_DO"
 
New "Load.BT_231933_M1" bus1="UC231933.1.2.4" phases=2 conn=delta model=2 kv=0.44 kw = 1.1998348715217662 pf=0.92 status=variable vmaxpu=1.5 vminpu=0.93 daily="RU5_DO" 
New "Load.BT_231933_M2" bus1="UC231933.1.2.4" phases=2 conn=delta model=3 kv=0.44 kw = 1.1998348715217662 pf=0.92 status=variable vmaxpu=1.5 vminpu=0.93 daily="RU5_DO"
 
New "Load.BT_2831495_M1" bus1="UC2831495.1.4" phases=1 conn=delta model=2 kv=0.22 kw = 0.09730501525282728 pf=0.92 status=variable vmaxpu=1.5 vminpu=0.93 daily="RU3_DO" 
New "Load.BT_2831495_M2" bus1="UC2831495.1.4" phases=1 conn=delta model=3 kv=0.22 kw = 0.09730501525282728 pf=0.92 status=variable vmaxpu=1.5 vminpu=0.93 daily="RU3_DO"
 
New "Load.BT_2831490_M1" bus1="UC2831490.1.4" phases=1 conn=delta model=2 kv=0.22 kw = 0.009910545713926064 pf=0.92 status=variable vmaxpu=1.5 vminpu=0.93 daily="RU1_DO" 
New "Load.BT_2831490_M2" bus1="UC2831490.1.4" phases=1 conn=delta model=3 kv=0.22 kw = 0.009910545713926064 pf=0.92 status=variable vmaxpu=1.5 vminpu=0.93 daily="RU1_DO"
 
New "Load.BT_231251_M1" bus1="UC231251.3.4" phases=1 conn=delta model=2 kv=0.22 kw = 0.0 pf=0.92 status=variable vmaxpu=1.5 vminpu=0.93 daily="CO3_DO" 
New "Load.BT_231251_M2" bus1="UC231251.3.4" phases=1 conn=delta model=3 kv=0.22 kw = 0.0 pf=0.92 status=variable vmaxpu=1.5 vminpu=0.93 daily="CO3_DO"
 
New "Load.BT_2831192_M1" bus1="UC2831192.1.4" phases=1 conn=delta model=2 kv=0.22 kw = 0.03262215879114259 pf=0.92 status=variable vmaxpu=1.5 vminpu=0.93 daily="RU7_DO" 
New "Load.BT_2831192_M2" bus1="UC2831192.1.4" phases=1 conn=delta model=3 kv=0.22 kw = 0.03262215879114259 pf=0.92 status=variable vmaxpu=1.5 vminpu=0.93 daily="RU7_DO"
 
New "Load.BT_2831188_M1" bus1="UC2831188.1.4" phases=1 conn=delta model=2 kv=0.22 kw = 0.13085663508323278 pf=0.92 status=variable vmaxpu=1.5 vminpu=0.93 daily="PP3_DO" 
New "Load.BT_2831188_M2" bus1="UC2831188.1.4" phases=1 conn=delta model=3 kv=0.22 kw = 0.13085663508323278 pf=0.92 status=variable vmaxpu=1.5 vminpu=0.93 daily="PP3_DO"
 
New "Load.BT_230656_M1" bus1="UC230656.2.4" phases=1 conn=delta model=2 kv=0.22 kw = 0.06644900667086527 pf=0.92 status=variable vmaxpu=1.5 vminpu=0.93 daily="RU2_DO" 
New "Load.BT_230656_M2" bus1="UC230656.2.4" phases=1 conn=delta model=3 kv=0.22 kw = 0.06644900667086527 pf=0.92 status=variable vmaxpu=1.5 vminpu=0.93 daily="RU2_DO"
 
New "Load.BT_2830653_M1" bus1="UC2830653.2.4" phases=1 conn=delta model=2 kv=0.22 kw = 0.06713404797675049 pf=0.92 status=variable vmaxpu=1.5 vminpu=0.93 daily="RU2_DO" 
New "Load.BT_2830653_M2" bus1="UC2830653.2.4" phases=1 conn=delta model=3 kv=0.22 kw = 0.06713404797675049 pf=0.92 status=variable vmaxpu=1.5 vminpu=0.93 daily="RU2_DO"
 
New "Load.BT_230651_M1" bus1="UC230651.1.4" phases=1 conn=delta model=2 kv=0.22 kw = 0.2615524045278156 pf=0.92 status=variable vmaxpu=1.5 vminpu=0.93 daily="RU4_DO" 
New "Load.BT_230651_M2" bus1="UC230651.1.4" phases=1 conn=delta model=3 kv=0.22 kw = 0.2615524045278156 pf=0.92 status=variable vmaxpu=1.5 vminpu=0.93 daily="RU4_DO"
 
New "Load.BT_230555_M1" bus1="UC230555.1.4" phases=1 conn=delta model=2 kv=0.22 kw = 0.007041795506518112 pf=0.92 status=variable vmaxpu=1.5 vminpu=0.93 daily="RU4_DO" 
New "Load.BT_230555_M2" bus1="UC230555.1.4" phases=1 conn=delta model=3 kv=0.22 kw = 0.007041795506518112 pf=0.92 status=variable vmaxpu=1.5 vminpu=0.93 daily="RU4_DO"
 
New "Load.BT_228394_M1" bus1="UC228394.1.4" phases=1 conn=delta model=2 kv=0.22 kw = 0.4009919335016026 pf=0.92 status=variable vmaxpu=1.5 vminpu=0.93 daily="RU5_DO" 
New "Load.BT_228394_M2" bus1="UC228394.1.4" phases=1 conn=delta model=3 kv=0.22 kw = 0.4009919335016026 pf=0.92 status=variable vmaxpu=1.5 vminpu=0.93 daily="RU5_DO"
 
New "Load.BT_228388_M1" bus1="UC228388.1.4" phases=1 conn=delta model=2 kv=0.22 kw = 0.1382663509677534 pf=0.92 status=variable vmaxpu=1.5 vminpu=0.93 daily="RE1_DO" 
New "Load.BT_228388_M2" bus1="UC228388.1.4" phases=1 conn=delta model=3 kv=0.22 kw = 0.1382663509677534 pf=0.92 status=variable vmaxpu=1.5 vminpu=0.93 daily="RE1_DO"
 
New "Load.BT_227082_M1" bus1="UC227082.2.4" phases=1 conn=delta model=2 kv=0.22 kw = 0.011461839575266317 pf=0.92 status=variable vmaxpu=1.5 vminpu=0.93 daily="RU7_DO" 
New "Load.BT_227082_M2" bus1="UC227082.2.4" phases=1 conn=delta model=3 kv=0.22 kw = 0.011461839575266317 pf=0.92 status=variable vmaxpu=1.5 vminpu=0.93 daily="RU7_DO"
 
New "Load.BT_2827937_M1" bus1="UC2827937.1.4" phases=1 conn=delta model=2 kv=0.22 kw = 0.10580159607938139 pf=0.92 status=variable vmaxpu=1.5 vminpu=0.93 daily="RU7_DO" 
New "Load.BT_2827937_M2" bus1="UC2827937.1.4" phases=1 conn=delta model=3 kv=0.22 kw = 0.10580159607938139 pf=0.92 status=variable vmaxpu=1.5 vminpu=0.93 daily="RU7_DO"
 
New "Load.BT_228376_M1" bus1="UC228376.1.4" phases=1 conn=delta model=2 kv=0.22 kw = 0.23137328092845227 pf=0.92 status=variable vmaxpu=1.5 vminpu=0.93 daily="RU4_DO" 
New "Load.BT_228376_M2" bus1="UC228376.1.4" phases=1 conn=delta model=3 kv=0.22 kw = 0.23137328092845227 pf=0.92 status=variable vmaxpu=1.5 vminpu=0.93 daily="RU4_DO"
 
New "Load.BT_226217_M1" bus1="UC226217.1.4" phases=1 conn=delta model=2 kv=0.22 kw = 0.07000968219009013 pf=0.92 status=variable vmaxpu=1.5 vminpu=0.93 daily="RU8_DO" 
New "Load.BT_226217_M2" bus1="UC226217.1.4" phases=1 conn=delta model=3 kv=0.22 kw = 0.07000968219009013 pf=0.92 status=variable vmaxpu=1.5 vminpu=0.93 daily="RU8_DO"
 
New "Load.BT_226224_M1" bus1="UC226224.2.4" phases=1 conn=delta model=2 kv=0.22 kw = 0.0977148570700034 pf=0.92 status=variable vmaxpu=1.5 vminpu=0.93 daily="RE6_DO" 
New "Load.BT_226224_M2" bus1="UC226224.2.4" phases=1 conn=delta model=3 kv=0.22 kw = 0.0977148570700034 pf=0.92 status=variable vmaxpu=1.5 vminpu=0.93 daily="RE6_DO"
 
New "Load.BT_226233_M1" bus1="UC226233.1.2.3.4" phases=3 conn=delta model=2 kv=0.38 kw = 0.32288334134163804 pf=0.92 status=variable vmaxpu=1.5 vminpu=0.93 daily="CO4_DO" 
New "Load.BT_226233_M2" bus1="UC226233.1.2.3.4" phases=3 conn=delta model=3 kv=0.38 kw = 0.32288334134163804 pf=0.92 status=variable vmaxpu=1.5 vminpu=0.93 daily="CO4_DO"
 
New "Load.BT_227077_M1" bus1="UC227077.2.4" phases=1 conn=delta model=2 kv=0.22 kw = 0.15958407408640027 pf=0.92 status=variable vmaxpu=1.5 vminpu=0.93 daily="RU7_DO" 
New "Load.BT_227077_M2" bus1="UC227077.2.4" phases=1 conn=delta model=3 kv=0.22 kw = 0.15958407408640027 pf=0.92 status=variable vmaxpu=1.5 vminpu=0.93 daily="RU7_DO"
 
New "Load.BT_227073_M1" bus1="UC227073.2.4" phases=1 conn=delta model=2 kv=0.22 kw = 0.01665581342165512 pf=0.92 status=variable vmaxpu=1.5 vminpu=0.93 daily="RU3_DO" 
New "Load.BT_227073_M2" bus1="UC227073.2.4" phases=1 conn=delta model=3 kv=0.22 kw = 0.01665581342165512 pf=0.92 status=variable vmaxpu=1.5 vminpu=0.93 daily="RU3_DO"
 
New "Load.BT_2805756_M1" bus1="UC2805756.1.2.3.4" phases=3 conn=delta model=2 kv=0.38 kw = 0.2140754080891278 pf=0.92 status=variable vmaxpu=1.5 vminpu=0.93 daily="RU2_DO" 
New "Load.BT_2805756_M2" bus1="UC2805756.1.2.3.4" phases=3 conn=delta model=3 kv=0.38 kw = 0.2140754080891278 pf=0.92 status=variable vmaxpu=1.5 vminpu=0.93 daily="RU2_DO"
 
New "Load.BT_2805757_M1" bus1="UC2805757.1.2.3.4" phases=3 conn=delta model=2 kv=0.38 kw = 0.2901149930423861 pf=0.92 status=variable vmaxpu=1.5 vminpu=0.93 daily="RU2_DO" 
New "Load.BT_2805757_M2" bus1="UC2805757.1.2.3.4" phases=3 conn=delta model=3 kv=0.38 kw = 0.2901149930423861 pf=0.92 status=variable vmaxpu=1.5 vminpu=0.93 daily="RU2_DO"
 
New "Load.BT_2819390_M1" bus1="UC2819390.1.4" phases=1 conn=delta model=2 kv=0.22 kw = 0.6315159087350988 pf=0.92 status=variable vmaxpu=1.5 vminpu=0.93 daily="RU8_DO" 
New "Load.BT_2819390_M2" bus1="UC2819390.1.4" phases=1 conn=delta model=3 kv=0.22 kw = 0.6315159087350988 pf=0.92 status=variable vmaxpu=1.5 vminpu=0.93 daily="RU8_DO"
 
New "Load.BT_2819375_M1" bus1="UC2819375.1.4" phases=1 conn=delta model=2 kv=0.22 kw = 0.0 pf=0.92 status=variable vmaxpu=1.5 vminpu=0.93 daily="RU2_DO" 
New "Load.BT_2819375_M2" bus1="UC2819375.1.4" phases=1 conn=delta model=3 kv=0.22 kw = 0.0 pf=0.92 status=variable vmaxpu=1.5 vminpu=0.93 daily="RU2_DO"
 
New "Load.BT_2819355_M1" bus1="UC2819355.1.4" phases=1 conn=delta model=2 kv=0.22 kw = 0.005829732772897686 pf=0.92 status=variable vmaxpu=1.5 vminpu=0.93 daily="RU1_DO" 
New "Load.BT_2819355_M2" bus1="UC2819355.1.4" phases=1 conn=delta model=3 kv=0.22 kw = 0.005829732772897686 pf=0.92 status=variable vmaxpu=1.5 vminpu=0.93 daily="RU1_DO"
 
New "Load.BT_2822268_M1" bus1="UC2822268.2.4" phases=1 conn=delta model=2 kv=0.22 kw = 0.20837940548952633 pf=0.92 status=variable vmaxpu=1.5 vminpu=0.93 daily="RU6_DO" 
New "Load.BT_2822268_M2" bus1="UC2822268.2.4" phases=1 conn=delta model=3 kv=0.22 kw = 0.20837940548952633 pf=0.92 status=variable vmaxpu=1.5 vminpu=0.93 daily="RU6_DO"
 
New "Load.BT_2806028_M1" bus1="UC2806028.2.4" phases=1 conn=delta model=2 kv=0.22 kw = 0.20738237484125108 pf=0.92 status=variable vmaxpu=1.5 vminpu=0.93 daily="RU6_DO" 
New "Load.BT_2806028_M2" bus1="UC2806028.2.4" phases=1 conn=delta model=3 kv=0.22 kw = 0.20738237484125108 pf=0.92 status=variable vmaxpu=1.5 vminpu=0.93 daily="RU6_DO"
 
New "Load.BT_2806039_M1" bus1="UC2806039.1.2.3.4" phases=3 conn=delta model=2 kv=0.38 kw = 0.8631646880142864 pf=0.92 status=variable vmaxpu=1.5 vminpu=0.93 daily="RU7_DO" 
New "Load.BT_2806039_M2" bus1="UC2806039.1.2.3.4" phases=3 conn=delta model=3 kv=0.38 kw = 0.8631646880142864 pf=0.92 status=variable vmaxpu=1.5 vminpu=0.93 daily="RU7_DO"
 
New "Load.BT_2805793_M1" bus1="UC2805793.2.4" phases=1 conn=delta model=2 kv=0.22 kw = 0.14787770563688035 pf=0.92 status=variable vmaxpu=1.5 vminpu=0.93 daily="RU4_DO" 
New "Load.BT_2805793_M2" bus1="UC2805793.2.4" phases=1 conn=delta model=3 kv=0.22 kw = 0.14787770563688035 pf=0.92 status=variable vmaxpu=1.5 vminpu=0.93 daily="RU4_DO"
 
New "Load.BT_2805784_M1" bus1="UC2805784.1.4" phases=1 conn=delta model=2 kv=0.22 kw = 0.15390552016902237 pf=0.92 status=variable vmaxpu=1.5 vminpu=0.93 daily="RU5_DO" 
New "Load.BT_2805784_M2" bus1="UC2805784.1.4" phases=1 conn=delta model=3 kv=0.22 kw = 0.15390552016902237 pf=0.92 status=variable vmaxpu=1.5 vminpu=0.93 daily="RU5_DO"
 
New "Load.BT_2805785_M1" bus1="UC2805785.1.4" phases=1 conn=delta model=2 kv=0.22 kw = 0.008563016323565114 pf=0.92 status=variable vmaxpu=1.5 vminpu=0.93 daily="RU2_DO" 
New "Load.BT_2805785_M2" bus1="UC2805785.1.4" phases=1 conn=delta model=3 kv=0.22 kw = 0.008563016323565114 pf=0.92 status=variable vmaxpu=1.5 vminpu=0.93 daily="RU2_DO"
 
New "Load.BT_2805790_M1" bus1="UC2805790.2.4" phases=1 conn=delta model=2 kv=0.22 kw = 0.08689903519747523 pf=0.92 status=variable vmaxpu=1.5 vminpu=0.93 daily="RU5_DO" 
New "Load.BT_2805790_M2" bus1="UC2805790.2.4" phases=1 conn=delta model=3 kv=0.22 kw = 0.08689903519747523 pf=0.92 status=variable vmaxpu=1.5 vminpu=0.93 daily="RU5_DO"
 
New "Load.BT_2805782_M1" bus1="UC2805782.2.4" phases=1 conn=delta model=2 kv=0.22 kw = 0.1143015219430043 pf=0.92 status=variable vmaxpu=1.5 vminpu=0.93 daily="RU8_DO" 
New "Load.BT_2805782_M2" bus1="UC2805782.2.4" phases=1 conn=delta model=3 kv=0.22 kw = 0.1143015219430043 pf=0.92 status=variable vmaxpu=1.5 vminpu=0.93 daily="RU8_DO"
 
New "Load.BT_2805766_M1" bus1="UC2805766.2.4" phases=1 conn=delta model=2 kv=0.22 kw = 0.14756053594473637 pf=0.92 status=variable vmaxpu=1.5 vminpu=0.93 daily="RU6_DO" 
New "Load.BT_2805766_M2" bus1="UC2805766.2.4" phases=1 conn=delta model=3 kv=0.22 kw = 0.14756053594473637 pf=0.92 status=variable vmaxpu=1.5 vminpu=0.93 daily="RU6_DO"
 
New "Load.BT_2817050_M1" bus1="UC2817050.2.4" phases=1 conn=delta model=2 kv=0.22 kw = 0.11020999591602229 pf=0.92 status=variable vmaxpu=1.5 vminpu=0.93 daily="RU7_DO" 
New "Load.BT_2817050_M2" bus1="UC2817050.2.4" phases=1 conn=delta model=3 kv=0.22 kw = 0.11020999591602229 pf=0.92 status=variable vmaxpu=1.5 vminpu=0.93 daily="RU7_DO"
 
New "Load.BT_2818311_M1" bus1="UC2818311.2.4" phases=1 conn=delta model=2 kv=0.22 kw = 0.04829541206490724 pf=0.92 status=variable vmaxpu=1.5 vminpu=0.93 daily="RU2_DO" 
New "Load.BT_2818311_M2" bus1="UC2818311.2.4" phases=1 conn=delta model=3 kv=0.22 kw = 0.04829541206490724 pf=0.92 status=variable vmaxpu=1.5 vminpu=0.93 daily="RU2_DO"
 
New "Load.BT_2825858_M1" bus1="UC2825858.2.4" phases=1 conn=delta model=2 kv=0.22 kw = 0.1800687708095346 pf=0.92 status=variable vmaxpu=1.5 vminpu=0.93 daily="RU4_DO" 
New "Load.BT_2825858_M2" bus1="UC2825858.2.4" phases=1 conn=delta model=3 kv=0.22 kw = 0.1800687708095346 pf=0.92 status=variable vmaxpu=1.5 vminpu=0.93 daily="RU4_DO"
 
New "Load.BT_2817028_M1" bus1="UC2817028.1.4" phases=1 conn=delta model=2 kv=0.22 kw = 0.7786791182367169 pf=0.92 status=variable vmaxpu=1.5 vminpu=0.93 daily="RU8_DO" 
New "Load.BT_2817028_M2" bus1="UC2817028.1.4" phases=1 conn=delta model=3 kv=0.22 kw = 0.7786791182367169 pf=0.92 status=variable vmaxpu=1.5 vminpu=0.93 daily="RU8_DO"
 
New "Load.BT_2817013_M1" bus1="UC2817013.1.4" phases=1 conn=delta model=2 kv=0.22 kw = 0.021915543975861998 pf=0.92 status=variable vmaxpu=1.5 vminpu=0.93 daily="RU3_DO" 
New "Load.BT_2817013_M2" bus1="UC2817013.1.4" phases=1 conn=delta model=3 kv=0.22 kw = 0.021915543975861998 pf=0.92 status=variable vmaxpu=1.5 vminpu=0.93 daily="RU3_DO"
 
New "Load.BT_226211_M1" bus1="UC226211.1.4" phases=1 conn=delta model=2 kv=0.22 kw = 0.056515907735529745 pf=0.92 status=variable vmaxpu=1.5 vminpu=0.93 daily="RU2_DO" 
New "Load.BT_226211_M2" bus1="UC226211.1.4" phases=1 conn=delta model=3 kv=0.22 kw = 0.056515907735529745 pf=0.92 status=variable vmaxpu=1.5 vminpu=0.93 daily="RU2_DO"
 
New "Load.BT_205798_M1" bus1="UC205798.1.4" phases=1 conn=delta model=2 kv=0.22 kw = 0.019892550225928063 pf=0.92 status=variable vmaxpu=1.5 vminpu=0.93 daily="RU5_DO" 
New "Load.BT_205798_M2" bus1="UC205798.1.4" phases=1 conn=delta model=3 kv=0.22 kw = 0.019892550225928063 pf=0.92 status=variable vmaxpu=1.5 vminpu=0.93 daily="RU5_DO"
 
New "Load.BT_221678_M1" bus1="UC221678.1.4" phases=1 conn=delta model=2 kv=0.22 kw = 0.07100636248179287 pf=0.92 status=variable vmaxpu=1.5 vminpu=0.93 daily="RU3_DO" 
New "Load.BT_221678_M2" bus1="UC221678.1.4" phases=1 conn=delta model=3 kv=0.22 kw = 0.07100636248179287 pf=0.92 status=variable vmaxpu=1.5 vminpu=0.93 daily="RU3_DO"
 
New "Load.BT_205762_M1" bus1="UC205762.2.4" phases=1 conn=delta model=2 kv=0.22 kw = 0.36237046657188127 pf=0.92 status=variable vmaxpu=1.5 vminpu=0.93 daily="RU7_DO" 
New "Load.BT_205762_M2" bus1="UC205762.2.4" phases=1 conn=delta model=3 kv=0.22 kw = 0.36237046657188127 pf=0.92 status=variable vmaxpu=1.5 vminpu=0.93 daily="RU7_DO"
 
New "Load.BT_205763_M1" bus1="UC205763.1.2.4" phases=2 conn=delta model=2 kv=0.44 kw = 0.0 pf=0.92 status=variable vmaxpu=1.5 vminpu=0.93 daily="RU5_DO" 
New "Load.BT_205763_M2" bus1="UC205763.1.2.4" phases=2 conn=delta model=3 kv=0.44 kw = 0.0 pf=0.92 status=variable vmaxpu=1.5 vminpu=0.93 daily="RU5_DO"
 
New "Load.BT_205767_M1" bus1="UC205767.1.2.4" phases=2 conn=delta model=2 kv=0.44 kw = 0.05377574251198892 pf=0.92 status=variable vmaxpu=1.5 vminpu=0.93 daily="RU2_DO" 
New "Load.BT_205767_M2" bus1="UC205767.1.2.4" phases=2 conn=delta model=3 kv=0.44 kw = 0.05377574251198892 pf=0.92 status=variable vmaxpu=1.5 vminpu=0.93 daily="RU2_DO"
 
New "Load.BT_221287_M1" bus1="UC221287.1.2.3.4" phases=3 conn=delta model=2 kv=0.38 kw = 0.09076797302979021 pf=0.92 status=variable vmaxpu=1.5 vminpu=0.93 daily="RU2_DO" 
New "Load.BT_221287_M2" bus1="UC221287.1.2.3.4" phases=3 conn=delta model=3 kv=0.38 kw = 0.09076797302979021 pf=0.92 status=variable vmaxpu=1.5 vminpu=0.93 daily="RU2_DO"
 
New "Load.BT_205749_M1" bus1="UC205749.1.2.4" phases=2 conn=delta model=2 kv=0.44 kw = 0.22288796778885836 pf=0.92 status=variable vmaxpu=1.5 vminpu=0.93 daily="RU8_DO" 
New "Load.BT_205749_M2" bus1="UC205749.1.2.4" phases=2 conn=delta model=3 kv=0.44 kw = 0.22288796778885836 pf=0.92 status=variable vmaxpu=1.5 vminpu=0.93 daily="RU8_DO"
 
New "Load.BT_205751_M1" bus1="UC205751.2.4" phases=1 conn=delta model=2 kv=0.22 kw = 0.12474037754403515 pf=0.92 status=variable vmaxpu=1.5 vminpu=0.93 daily="RU4_DO" 
New "Load.BT_205751_M2" bus1="UC205751.2.4" phases=1 conn=delta model=3 kv=0.22 kw = 0.12474037754403515 pf=0.92 status=variable vmaxpu=1.5 vminpu=0.93 daily="RU4_DO"
 
New "Load.BT_205752_M1" bus1="UC205752.1.2.3.4" phases=3 conn=delta model=2 kv=0.38 kw = 0.014362341649593388 pf=0.92 status=variable vmaxpu=1.5 vminpu=0.93 daily="RU1_DO" 
New "Load.BT_205752_M2" bus1="UC205752.1.2.3.4" phases=3 conn=delta model=3 kv=0.38 kw = 0.014362341649593388 pf=0.92 status=variable vmaxpu=1.5 vminpu=0.93 daily="RU1_DO"
 
New "Load.BT_205753_M1" bus1="UC205753.2.4" phases=1 conn=delta model=2 kv=0.22 kw = 0.01948330433705411 pf=0.92 status=variable vmaxpu=1.5 vminpu=0.93 daily="CO6_DO" 
New "Load.BT_205753_M2" bus1="UC205753.2.4" phases=1 conn=delta model=3 kv=0.22 kw = 0.01948330433705411 pf=0.92 status=variable vmaxpu=1.5 vminpu=0.93 daily="CO6_DO"
 
New "Load.BT_205754_M1" bus1="UC205754.1.2.3.4" phases=3 conn=delta model=2 kv=0.38 kw = 0.2714661146146352 pf=0.92 status=variable vmaxpu=1.5 vminpu=0.93 daily="RU8_DO" 
New "Load.BT_205754_M2" bus1="UC205754.1.2.3.4" phases=3 conn=delta model=3 kv=0.38 kw = 0.2714661146146352 pf=0.92 status=variable vmaxpu=1.5 vminpu=0.93 daily="RU8_DO"
 
New "Load.BT_205755_M1" bus1="UC205755.1.4" phases=1 conn=delta model=2 kv=0.22 kw = 0.2060061133731028 pf=0.92 status=variable vmaxpu=1.5 vminpu=0.93 daily="RU3_DO" 
New "Load.BT_205755_M2" bus1="UC205755.1.4" phases=1 conn=delta model=3 kv=0.22 kw = 0.2060061133731028 pf=0.92 status=variable vmaxpu=1.5 vminpu=0.93 daily="RU3_DO"
 
New "Load.BT_205747_M1" bus1="UC205747.1.4" phases=1 conn=delta model=2 kv=0.22 kw = 0.006889684186151809 pf=0.92 status=variable vmaxpu=1.5 vminpu=0.93 daily="RU1_DO" 
New "Load.BT_205747_M2" bus1="UC205747.1.4" phases=1 conn=delta model=3 kv=0.22 kw = 0.006889684186151809 pf=0.92 status=variable vmaxpu=1.5 vminpu=0.93 daily="RU1_DO"
 
New "Load.BT_205746_M1" bus1="UC205746.1.4" phases=1 conn=delta model=2 kv=0.22 kw = 0.011430152194300429 pf=0.92 status=variable vmaxpu=1.5 vminpu=0.93 daily="RU8_DO" 
New "Load.BT_205746_M2" bus1="UC205746.1.4" phases=1 conn=delta model=3 kv=0.22 kw = 0.011430152194300429 pf=0.92 status=variable vmaxpu=1.5 vminpu=0.93 daily="RU8_DO"
 
New "Load.BT_220652_M1" bus1="UC220652.1.4" phases=1 conn=delta model=2 kv=0.22 kw = 0.18112690468871342 pf=0.92 status=variable vmaxpu=1.5 vminpu=0.93 daily="RU5_DO" 
New "Load.BT_220652_M2" bus1="UC220652.1.4" phases=1 conn=delta model=3 kv=0.22 kw = 0.18112690468871342 pf=0.92 status=variable vmaxpu=1.5 vminpu=0.93 daily="RU5_DO"
 
New "Load.BT_221021_M1" bus1="UC221021.1.4" phases=1 conn=delta model=2 kv=0.22 kw = 0.0380197924766291 pf=0.92 status=variable vmaxpu=1.5 vminpu=0.93 daily="RU2_DO" 
New "Load.BT_221021_M2" bus1="UC221021.1.4" phases=1 conn=delta model=3 kv=0.22 kw = 0.0380197924766291 pf=0.92 status=variable vmaxpu=1.5 vminpu=0.93 daily="RU2_DO"
 
New "Load.BT_205739_M1" bus1="UC205739.1.4" phases=1 conn=delta model=2 kv=0.22 kw = 0.4597195551218357 pf=0.92 status=variable vmaxpu=1.5 vminpu=0.93 daily="RE5_DO" 
New "Load.BT_205739_M2" bus1="UC205739.1.4" phases=1 conn=delta model=3 kv=0.22 kw = 0.4597195551218357 pf=0.92 status=variable vmaxpu=1.5 vminpu=0.93 daily="RE5_DO"
 
New "Load.BT_205744_M1" bus1="UC205744.1.2.3.4" phases=3 conn=delta model=2 kv=0.38 kw = 0.0900399641805165 pf=0.92 status=variable vmaxpu=1.5 vminpu=0.93 daily="RU5_DO" 
New "Load.BT_205744_M2" bus1="UC205744.1.2.3.4" phases=3 conn=delta model=3 kv=0.38 kw = 0.0900399641805165 pf=0.92 status=variable vmaxpu=1.5 vminpu=0.93 daily="RU5_DO"
 
New "Load.BT_205745_M1" bus1="UC205745.1.2.3.4" phases=3 conn=delta model=2 kv=0.38 kw = 0.16311079395571298 pf=0.92 status=variable vmaxpu=1.5 vminpu=0.93 daily="RU7_DO" 
New "Load.BT_205745_M2" bus1="UC205745.1.2.3.4" phases=3 conn=delta model=3 kv=0.38 kw = 0.16311079395571298 pf=0.92 status=variable vmaxpu=1.5 vminpu=0.93 daily="RU7_DO"
 
New "Load.BT_205737_M1" bus1="UC205737.2.4" phases=1 conn=delta model=2 kv=0.22 kw = 0.27419985402296876 pf=0.92 status=variable vmaxpu=1.5 vminpu=0.93 daily="RE6_DO" 
New "Load.BT_205737_M2" bus1="UC205737.2.4" phases=1 conn=delta model=3 kv=0.22 kw = 0.27419985402296876 pf=0.92 status=variable vmaxpu=1.5 vminpu=0.93 daily="RE6_DO"
 
New "Load.BT_225866_M1" bus1="UC225866.1.2.3.4" phases=3 conn=delta model=2 kv=0.38 kw = 0.07977258007213767 pf=0.92 status=variable vmaxpu=1.5 vminpu=0.93 daily="RU3_DO" 
New "Load.BT_225866_M2" bus1="UC225866.1.2.3.4" phases=3 conn=delta model=3 kv=0.38 kw = 0.07977258007213767 pf=0.92 status=variable vmaxpu=1.5 vminpu=0.93 daily="RU3_DO"
 
New "Load.BT_228021_M1" bus1="UC228021.2.4" phases=1 conn=delta model=2 kv=0.22 kw = 0.2635643461011065 pf=0.92 status=variable vmaxpu=1.5 vminpu=0.93 daily="RU4_DO" 
New "Load.BT_228021_M2" bus1="UC228021.2.4" phases=1 conn=delta model=3 kv=0.22 kw = 0.2635643461011065 pf=0.92 status=variable vmaxpu=1.5 vminpu=0.93 daily="RU4_DO"
 
New "Load.BT_223629_M1" bus1="UC223629.1.4" phases=1 conn=delta model=2 kv=0.22 kw = 0.043312350905561306 pf=0.92 status=variable vmaxpu=1.5 vminpu=0.93 daily="RE1_DO" 
New "Load.BT_223629_M2" bus1="UC223629.1.4" phases=1 conn=delta model=3 kv=0.22 kw = 0.043312350905561306 pf=0.92 status=variable vmaxpu=1.5 vminpu=0.93 daily="RE1_DO"
 
New "Load.BT_217024_M1" bus1="UC217024.1.4" phases=1 conn=delta model=2 kv=0.22 kw = 0.138423754870524 pf=0.92 status=variable vmaxpu=1.5 vminpu=0.93 daily="RU7_DO" 
New "Load.BT_217024_M2" bus1="UC217024.1.4" phases=1 conn=delta model=3 kv=0.22 kw = 0.138423754870524 pf=0.92 status=variable vmaxpu=1.5 vminpu=0.93 daily="RU7_DO"
 
New "Load.BT_223627_M1" bus1="UC223627.2.4" phases=1 conn=delta model=2 kv=0.22 kw = 0.028575380485751076 pf=0.92 status=variable vmaxpu=1.5 vminpu=0.93 daily="RU8_DO" 
New "Load.BT_223627_M2" bus1="UC223627.2.4" phases=1 conn=delta model=3 kv=0.22 kw = 0.028575380485751076 pf=0.92 status=variable vmaxpu=1.5 vminpu=0.93 daily="RU8_DO"
 
New "Load.BT_205672_M1" bus1="UC205672.1.4" phases=1 conn=delta model=2 kv=0.22 kw = 0.05583371630341376 pf=0.92 status=variable vmaxpu=1.5 vminpu=0.93 daily="RU6_DO" 
New "Load.BT_205672_M2" bus1="UC205672.1.4" phases=1 conn=delta model=3 kv=0.22 kw = 0.05583371630341376 pf=0.92 status=variable vmaxpu=1.5 vminpu=0.93 daily="RU6_DO"
 
New "Load.BT_205673_M1" bus1="UC205673.2.4" phases=1 conn=delta model=2 kv=0.22 kw = 0.19717027418250715 pf=0.92 status=variable vmaxpu=1.5 vminpu=0.93 daily="RU4_DO" 
New "Load.BT_205673_M2" bus1="UC205673.2.4" phases=1 conn=delta model=3 kv=0.22 kw = 0.19717027418250715 pf=0.92 status=variable vmaxpu=1.5 vminpu=0.93 daily="RU4_DO"
 
New "Load.BT_205666_M1" bus1="UC205666.1.2.3.4" phases=3 conn=delta model=2 kv=0.38 kw = 0.39561135414870824 pf=0.92 status=variable vmaxpu=1.5 vminpu=0.93 daily="RU2_DO" 
New "Load.BT_205666_M2" bus1="UC205666.1.2.3.4" phases=3 conn=delta model=3 kv=0.38 kw = 0.39561135414870824 pf=0.92 status=variable vmaxpu=1.5 vminpu=0.93 daily="RU2_DO"
 
New "Load.BT_205668_M1" bus1="UC205668.1.4" phases=1 conn=delta model=2 kv=0.22 kw = 0.01812516916664553 pf=0.92 status=variable vmaxpu=1.5 vminpu=0.93 daily="RU1_DO" 
New "Load.BT_205668_M2" bus1="UC205668.1.4" phases=1 conn=delta model=3 kv=0.22 kw = 0.01812516916664553 pf=0.92 status=variable vmaxpu=1.5 vminpu=0.93 daily="RU1_DO"
 
New "Load.BT_205669_M1" bus1="UC205669.2.4" phases=1 conn=delta model=2 kv=0.22 kw = 0.03418824860234471 pf=0.92 status=variable vmaxpu=1.5 vminpu=0.93 daily="RU3_DO" 
New "Load.BT_205669_M2" bus1="UC205669.2.4" phases=1 conn=delta model=3 kv=0.22 kw = 0.03418824860234471 pf=0.92 status=variable vmaxpu=1.5 vminpu=0.93 daily="RU3_DO"
 
New "Load.BT_205670_M1" bus1="UC205670.2.4" phases=1 conn=delta model=2 kv=0.22 kw = 0.08349557529157191 pf=0.92 status=variable vmaxpu=1.5 vminpu=0.93 daily="RU4_DO" 
New "Load.BT_205670_M2" bus1="UC205670.2.4" phases=1 conn=delta model=3 kv=0.22 kw = 0.08349557529157191 pf=0.92 status=variable vmaxpu=1.5 vminpu=0.93 daily="RU4_DO"
 
New "Load.BT_205671_M1" bus1="UC205671.2.4" phases=1 conn=delta model=2 kv=0.22 kw = 0.21717289169170817 pf=0.92 status=variable vmaxpu=1.5 vminpu=0.93 daily="RU8_DO" 
New "Load.BT_205671_M2" bus1="UC205671.2.4" phases=1 conn=delta model=3 kv=0.22 kw = 0.21717289169170817 pf=0.92 status=variable vmaxpu=1.5 vminpu=0.93 daily="RU8_DO"
 
New "Load.BT_206078_M1" bus1="UC206078.1.4" phases=1 conn=delta model=2 kv=0.22 kw = 0.005299757066270623 pf=0.92 status=variable vmaxpu=1.5 vminpu=0.93 daily="RU1_DO" 
New "Load.BT_206078_M2" bus1="UC206078.1.4" phases=1 conn=delta model=3 kv=0.22 kw = 0.005299757066270623 pf=0.92 status=variable vmaxpu=1.5 vminpu=0.93 daily="RU1_DO"
 
New "Load.BT_206080_M1" bus1="UC206080.2.4" phases=1 conn=delta model=2 kv=0.22 kw = 0.41043608095134143 pf=0.92 status=variable vmaxpu=1.5 vminpu=0.93 daily="RU4_DO" 
New "Load.BT_206080_M2" bus1="UC206080.2.4" phases=1 conn=delta model=3 kv=0.22 kw = 0.41043608095134143 pf=0.92 status=variable vmaxpu=1.5 vminpu=0.93 daily="RU4_DO"
 
New "Load.BT_205662_M1" bus1="UC205662.1.4" phases=1 conn=delta model=2 kv=0.22 kw = 0.4237380255169794 pf=0.92 status=variable vmaxpu=1.5 vminpu=0.93 daily="RU6_DO" 
New "Load.BT_205662_M2" bus1="UC205662.1.4" phases=1 conn=delta model=3 kv=0.22 kw = 0.4237380255169794 pf=0.92 status=variable vmaxpu=1.5 vminpu=0.93 daily="RU6_DO"
 
New "Load.BT_205664_M1" bus1="UC205664.1.2.4" phases=2 conn=delta model=2 kv=0.44 kw = 0.06837649720468943 pf=0.92 status=variable vmaxpu=1.5 vminpu=0.93 daily="RU3_DO" 
New "Load.BT_205664_M2" bus1="UC205664.1.2.4" phases=2 conn=delta model=3 kv=0.44 kw = 0.06837649720468943 pf=0.92 status=variable vmaxpu=1.5 vminpu=0.93 daily="RU3_DO"
 
New "Load.BT_205655_M1" bus1="UC205655.1.4" phases=1 conn=delta model=2 kv=0.22 kw = 0.2240529341236108 pf=0.92 status=variable vmaxpu=1.5 vminpu=0.93 daily="RU5_DO" 
New "Load.BT_205655_M2" bus1="UC205655.1.4" phases=1 conn=delta model=3 kv=0.22 kw = 0.2240529341236108 pf=0.92 status=variable vmaxpu=1.5 vminpu=0.93 daily="RU5_DO"
 
New "Load.BT_205658_M1" bus1="UC205658.1.4" phases=1 conn=delta model=2 kv=0.22 kw = 0.21628371912877062 pf=0.92 status=variable vmaxpu=1.5 vminpu=0.93 daily="RU4_DO" 
New "Load.BT_205658_M2" bus1="UC205658.1.4" phases=1 conn=delta model=3 kv=0.22 kw = 0.21628371912877062 pf=0.92 status=variable vmaxpu=1.5 vminpu=0.93 daily="RU4_DO"
 
New "Load.BT_205659_M1" bus1="UC205659.1.2.3.4" phases=3 conn=delta model=2 kv=0.38 kw = 0.16575583385769752 pf=0.92 status=variable vmaxpu=1.5 vminpu=0.93 daily="RU7_DO" 
New "Load.BT_205659_M2" bus1="UC205659.1.2.3.4" phases=3 conn=delta model=3 kv=0.38 kw = 0.16575583385769752 pf=0.92 status=variable vmaxpu=1.5 vminpu=0.93 daily="RU7_DO"
 
New "Load.BT_206061_M1" bus1="UC206061.1.4" phases=1 conn=delta model=2 kv=0.22 kw = 0.048286597758981344 pf=0.92 status=variable vmaxpu=1.5 vminpu=0.93 daily="RU4_DO" 
New "Load.BT_206061_M2" bus1="UC206061.1.4" phases=1 conn=delta model=3 kv=0.22 kw = 0.048286597758981344 pf=0.92 status=variable vmaxpu=1.5 vminpu=0.93 daily="RU4_DO"
 
New "Load.BT_205649_M1" bus1="UC205649.1.2.3.4" phases=3 conn=delta model=2 kv=0.38 kw = 0.35327856889089543 pf=0.92 status=variable vmaxpu=1.5 vminpu=0.93 daily="RU3_DO" 
New "Load.BT_205649_M2" bus1="UC205649.1.2.3.4" phases=3 conn=delta model=3 kv=0.38 kw = 0.35327856889089543 pf=0.92 status=variable vmaxpu=1.5 vminpu=0.93 daily="RU3_DO"
 
New "Load.BT_205650_M1" bus1="UC205650.1.4" phases=1 conn=delta model=2 kv=0.22 kw = 0.11864664714475424 pf=0.92 status=variable vmaxpu=1.5 vminpu=0.93 daily="RU6_DO" 
New "Load.BT_205650_M2" bus1="UC205650.1.4" phases=1 conn=delta model=3 kv=0.22 kw = 0.11864664714475424 pf=0.92 status=variable vmaxpu=1.5 vminpu=0.93 daily="RU6_DO"
 
New "Load.BT_205651_M1" bus1="UC205651.1.2.3.4" phases=3 conn=delta model=2 kv=0.38 kw = 0.4725804624879036 pf=0.92 status=variable vmaxpu=1.5 vminpu=0.93 daily="RU7_DO" 
New "Load.BT_205651_M2" bus1="UC205651.1.2.3.4" phases=3 conn=delta model=3 kv=0.38 kw = 0.4725804624879036 pf=0.92 status=variable vmaxpu=1.5 vminpu=0.93 daily="RU7_DO"
 
New "Load.BT_205653_M1" bus1="UC205653.1.2.3.4" phases=3 conn=delta model=2 kv=0.38 kw = 0.040005532680051505 pf=0.92 status=variable vmaxpu=1.5 vminpu=0.93 daily="RU8_DO" 
New "Load.BT_205653_M2" bus1="UC205653.1.2.3.4" phases=3 conn=delta model=3 kv=0.38 kw = 0.040005532680051505 pf=0.92 status=variable vmaxpu=1.5 vminpu=0.93 daily="RU8_DO"
 
New "Load.BT_205654_M1" bus1="UC205654.1.4" phases=1 conn=delta model=2 kv=0.22 kw = 0.032752498669552446 pf=0.92 status=variable vmaxpu=1.5 vminpu=0.93 daily="RU1_DO" 
New "Load.BT_205654_M2" bus1="UC205654.1.4" phases=1 conn=delta model=3 kv=0.22 kw = 0.032752498669552446 pf=0.92 status=variable vmaxpu=1.5 vminpu=0.93 daily="RU1_DO"
 
New "Load.BT_205648_M1" bus1="UC205648.1.4" phases=1 conn=delta model=2 kv=0.22 kw = 0.16831137773462013 pf=0.92 status=variable vmaxpu=1.5 vminpu=0.93 daily="RU3_DO" 
New "Load.BT_205648_M2" bus1="UC205648.1.4" phases=1 conn=delta model=3 kv=0.22 kw = 0.16831137773462013 pf=0.92 status=variable vmaxpu=1.5 vminpu=0.93 daily="RU3_DO"
 
New "Load.BT_205645_M1" bus1="UC205645.2.4" phases=1 conn=delta model=2 kv=0.22 kw = 0.12430290511301717 pf=0.92 status=variable vmaxpu=1.5 vminpu=0.93 daily="RU8_DO" 
New "Load.BT_205645_M2" bus1="UC205645.2.4" phases=1 conn=delta model=3 kv=0.22 kw = 0.12430290511301717 pf=0.92 status=variable vmaxpu=1.5 vminpu=0.93 daily="RU8_DO"
 
New "Load.BT_222266_M1" bus1="UC222266.2.4" phases=1 conn=delta model=2 kv=0.22 kw = 0.041444999006055146 pf=0.92 status=variable vmaxpu=1.5 vminpu=0.93 daily="RU2_DO" 
New "Load.BT_222266_M2" bus1="UC222266.2.4" phases=1 conn=delta model=3 kv=0.22 kw = 0.041444999006055146 pf=0.92 status=variable vmaxpu=1.5 vminpu=0.93 daily="RU2_DO"
 
New "Load.BT_205731_M1" bus1="UC205731.1.4" phases=1 conn=delta model=2 kv=0.22 kw = 0.02611187208361614 pf=0.92 status=variable vmaxpu=1.5 vminpu=0.93 daily="CO4_DO" 
New "Load.BT_205731_M2" bus1="UC205731.1.4" phases=1 conn=delta model=3 kv=0.22 kw = 0.02611187208361614 pf=0.92 status=variable vmaxpu=1.5 vminpu=0.93 daily="CO4_DO"
 
New "Load.BT_205734_M1" bus1="UC205734.1.2.4" phases=2 conn=delta model=2 kv=0.44 kw = 0.3244582279767696 pf=0.92 status=variable vmaxpu=1.5 vminpu=0.93 daily="RU7_DO" 
New "Load.BT_205734_M2" bus1="UC205734.1.2.4" phases=2 conn=delta model=3 kv=0.44 kw = 0.3244582279767696 pf=0.92 status=variable vmaxpu=1.5 vminpu=0.93 daily="RU7_DO"
 
New "Load.BT_219392_M1" bus1="UC219392.1.4" phases=1 conn=delta model=2 kv=0.22 kw = 0.11665258584820375 pf=0.92 status=variable vmaxpu=1.5 vminpu=0.93 daily="RU6_DO" 
New "Load.BT_219392_M2" bus1="UC219392.1.4" phases=1 conn=delta model=3 kv=0.22 kw = 0.11665258584820375 pf=0.92 status=variable vmaxpu=1.5 vminpu=0.93 daily="RU6_DO"
 
New "Load.BT_219394_M1" bus1="UC219394.1.4" phases=1 conn=delta model=2 kv=0.22 kw = 0.0750120229944304 pf=0.92 status=variable vmaxpu=1.5 vminpu=0.93 daily="RU2_DO" 
New "Load.BT_219394_M2" bus1="UC219394.1.4" phases=1 conn=delta model=3 kv=0.22 kw = 0.0750120229944304 pf=0.92 status=variable vmaxpu=1.5 vminpu=0.93 daily="RU2_DO"
 
New "Load.BT_219377_M1" bus1="UC219377.1.2.4" phases=2 conn=delta model=2 kv=0.44 kw = 2.150273271765866 pf=0.92 status=variable vmaxpu=1.5 vminpu=0.93 daily="PP7_DO" 
New "Load.BT_219377_M2" bus1="UC219377.1.2.4" phases=2 conn=delta model=3 kv=0.44 kw = 2.150273271765866 pf=0.92 status=variable vmaxpu=1.5 vminpu=0.93 daily="PP7_DO"
 
New "Load.BT_219381_M1" bus1="UC219381.1.4" phases=1 conn=delta model=2 kv=0.22 kw = 0.07100636248179287 pf=0.92 status=variable vmaxpu=1.5 vminpu=0.93 daily="RU3_DO" 
New "Load.BT_219381_M2" bus1="UC219381.1.4" phases=1 conn=delta model=3 kv=0.22 kw = 0.07100636248179287 pf=0.92 status=variable vmaxpu=1.5 vminpu=0.93 daily="RU3_DO"
 
New "Load.BT_219384_M1" bus1="UC219384.1.4" phases=1 conn=delta model=2 kv=0.22 kw = 0.1051946110841376 pf=0.92 status=variable vmaxpu=1.5 vminpu=0.93 daily="RU3_DO" 
New "Load.BT_219384_M2" bus1="UC219384.1.4" phases=1 conn=delta model=3 kv=0.22 kw = 0.1051946110841376 pf=0.92 status=variable vmaxpu=1.5 vminpu=0.93 daily="RU3_DO"
 
New "Load.BT_225587_M1" bus1="UC225587.1.4" phases=1 conn=delta model=2 kv=0.22 kw = 0.12623353330096512 pf=0.92 status=variable vmaxpu=1.5 vminpu=0.93 daily="RU3_DO" 
New "Load.BT_225587_M2" bus1="UC225587.1.4" phases=1 conn=delta model=3 kv=0.22 kw = 0.12623353330096512 pf=0.92 status=variable vmaxpu=1.5 vminpu=0.93 daily="RU3_DO"
 
New "Load.BT_205729_M1" bus1="UC205729.1.2.4" phases=2 conn=delta model=2 kv=0.44 kw = 0.12562586168268097 pf=0.92 status=variable vmaxpu=1.5 vminpu=0.93 daily="RU6_DO" 
New "Load.BT_205729_M2" bus1="UC205729.1.2.4" phases=2 conn=delta model=3 kv=0.44 kw = 0.12562586168268097 pf=0.92 status=variable vmaxpu=1.5 vminpu=0.93 daily="RU6_DO"
 
New "Load.BT_205730_M1" bus1="UC205730.2.4" phases=1 conn=delta model=2 kv=0.22 kw = 0.19002628023024465 pf=0.92 status=variable vmaxpu=1.5 vminpu=0.93 daily="RU8_DO" 
New "Load.BT_205730_M2" bus1="UC205730.2.4" phases=1 conn=delta model=3 kv=0.22 kw = 0.19002628023024465 pf=0.92 status=variable vmaxpu=1.5 vminpu=0.93 daily="RU8_DO"
 
New "Load.BT_205717_M1" bus1="UC205717.1.2.3.4" phases=3 conn=delta model=2 kv=0.38 kw = 0.06399338840951703 pf=0.92 status=variable vmaxpu=1.5 vminpu=0.93 daily="RU3_DO" 
New "Load.BT_205717_M2" bus1="UC205717.1.2.3.4" phases=3 conn=delta model=3 kv=0.38 kw = 0.06399338840951703 pf=0.92 status=variable vmaxpu=1.5 vminpu=0.93 daily="RU3_DO"
 
New "Load.BT_205719_M1" bus1="UC205719.2.4" phases=1 conn=delta model=2 kv=0.22 kw = 0.0 pf=0.92 status=variable vmaxpu=1.5 vminpu=0.93 daily="RE6_DO" 
New "Load.BT_205719_M2" bus1="UC205719.2.4" phases=1 conn=delta model=3 kv=0.22 kw = 0.0 pf=0.92 status=variable vmaxpu=1.5 vminpu=0.93 daily="RE6_DO"
 
New "Load.BT_205722_M1" bus1="UC205722.1.2.3.4" phases=3 conn=delta model=2 kv=0.38 kw = 0.11045434163834447 pf=0.92 status=variable vmaxpu=1.5 vminpu=0.93 daily="RU3_DO" 
New "Load.BT_205722_M2" bus1="UC205722.1.2.3.4" phases=3 conn=delta model=3 kv=0.38 kw = 0.11045434163834447 pf=0.92 status=variable vmaxpu=1.5 vminpu=0.93 daily="RU3_DO"
 
New "Load.BT_205727_M1" bus1="UC205727.1.4" phases=1 conn=delta model=2 kv=0.22 kw = 0.10365065644036202 pf=0.92 status=variable vmaxpu=1.5 vminpu=0.93 daily="RU5_DO" 
New "Load.BT_205727_M2" bus1="UC205727.1.4" phases=1 conn=delta model=3 kv=0.22 kw = 0.10365065644036202 pf=0.92 status=variable vmaxpu=1.5 vminpu=0.93 daily="RU5_DO"
 
New "Load.BT_205710_M1" bus1="UC205710.1.2.3.4" phases=3 conn=delta model=2 kv=0.38 kw = 0.2323047661441372 pf=0.92 status=variable vmaxpu=1.5 vminpu=0.93 daily="RU3_DO" 
New "Load.BT_205710_M2" bus1="UC205710.1.2.3.4" phases=3 conn=delta model=3 kv=0.38 kw = 0.2323047661441372 pf=0.92 status=variable vmaxpu=1.5 vminpu=0.93 daily="RU3_DO"
 
New "Load.BT_205711_M1" bus1="UC205711.2.4" phases=1 conn=delta model=2 kv=0.22 kw = 0.14134180423685733 pf=0.92 status=variable vmaxpu=1.5 vminpu=0.93 daily="RU5_DO" 
New "Load.BT_205711_M2" bus1="UC205711.2.4" phases=1 conn=delta model=3 kv=0.22 kw = 0.14134180423685733 pf=0.92 status=variable vmaxpu=1.5 vminpu=0.93 daily="RU5_DO"
 
New "Load.BT_205713_M1" bus1="UC205713.2.4" phases=1 conn=delta model=2 kv=0.22 kw = 0.20951260040924072 pf=0.92 status=variable vmaxpu=1.5 vminpu=0.93 daily="RU3_DO" 
New "Load.BT_205713_M2" bus1="UC205713.2.4" phases=1 conn=delta model=3 kv=0.22 kw = 0.20951260040924072 pf=0.92 status=variable vmaxpu=1.5 vminpu=0.93 daily="RU3_DO"
 
New "Load.BT_219351_M1" bus1="UC219351.2.4" phases=1 conn=delta model=2 kv=0.22 kw = 0.11638175568731951 pf=0.92 status=variable vmaxpu=1.5 vminpu=0.93 daily="RU7_DO" 
New "Load.BT_219351_M2" bus1="UC219351.2.4" phases=1 conn=delta model=3 kv=0.22 kw = 0.11638175568731951 pf=0.92 status=variable vmaxpu=1.5 vminpu=0.93 daily="RU7_DO"
 
New "Load.BT_219353_M1" bus1="UC219353.2.4" phases=1 conn=delta model=2 kv=0.22 kw = 0.008002633170068642 pf=0.92 status=variable vmaxpu=1.5 vminpu=0.93 daily="RU1_DO" 
New "Load.BT_219353_M2" bus1="UC219353.2.4" phases=1 conn=delta model=3 kv=0.22 kw = 0.008002633170068642 pf=0.92 status=variable vmaxpu=1.5 vminpu=0.93 daily="RU1_DO"
 
New "Load.BT_219354_M1" bus1="UC219354.1.4" phases=1 conn=delta model=2 kv=0.22 kw = 0.08873572769649686 pf=0.92 status=variable vmaxpu=1.5 vminpu=0.93 daily="RU6_DO" 
New "Load.BT_219354_M2" bus1="UC219354.1.4" phases=1 conn=delta model=3 kv=0.22 kw = 0.08873572769649686 pf=0.92 status=variable vmaxpu=1.5 vminpu=0.93 daily="RU6_DO"
 
New "Load.BT_219361_M1" bus1="UC219361.1.2.3.4" phases=3 conn=delta model=2 kv=0.38 kw = 0.11707163359391806 pf=0.92 status=variable vmaxpu=1.5 vminpu=0.93 daily="RU1_DO" 
New "Load.BT_219361_M2" bus1="UC219361.1.2.3.4" phases=3 conn=delta model=3 kv=0.38 kw = 0.11707163359391806 pf=0.92 status=variable vmaxpu=1.5 vminpu=0.93 daily="RU1_DO"
 
New "Load.BT_219363_M1" bus1="UC219363.2.4" phases=1 conn=delta model=2 kv=0.22 kw = 0.06491253231618631 pf=0.92 status=variable vmaxpu=1.5 vminpu=0.93 daily="RU5_DO" 
New "Load.BT_219363_M2" bus1="UC219363.2.4" phases=1 conn=delta model=3 kv=0.22 kw = 0.06491253231618631 pf=0.92 status=variable vmaxpu=1.5 vminpu=0.93 daily="RU5_DO"
 
New "Load.BT_205709_M1" bus1="UC205709.1.4" phases=1 conn=delta model=2 kv=0.22 kw = 0.0525973055420688 pf=0.92 status=variable vmaxpu=1.5 vminpu=0.93 daily="RU3_DO" 
New "Load.BT_205709_M2" bus1="UC205709.1.4" phases=1 conn=delta model=3 kv=0.22 kw = 0.0525973055420688 pf=0.92 status=variable vmaxpu=1.5 vminpu=0.93 daily="RU3_DO"
 
New "Load.BT_225590_M1" bus1="UC225590.2.4" phases=1 conn=delta model=2 kv=0.22 kw = 0.0736362277588963 pf=0.92 status=variable vmaxpu=1.5 vminpu=0.93 daily="RU3_DO" 
New "Load.BT_225590_M2" bus1="UC225590.2.4" phases=1 conn=delta model=3 kv=0.22 kw = 0.0736362277588963 pf=0.92 status=variable vmaxpu=1.5 vminpu=0.93 daily="RU3_DO"
 
New "Load.BT_225591_M1" bus1="UC225591.1.4" phases=1 conn=delta model=2 kv=0.22 kw = 0.04733757498786192 pf=0.92 status=variable vmaxpu=1.5 vminpu=0.93 daily="RU3_DO" 
New "Load.BT_225591_M2" bus1="UC225591.1.4" phases=1 conn=delta model=3 kv=0.22 kw = 0.04733757498786192 pf=0.92 status=variable vmaxpu=1.5 vminpu=0.93 daily="RU3_DO"
 
New "Load.BT_225591_M1" bus1="UC225591.1.4" phases=1 conn=delta model=2 kv=0.22 kw = 0.11166275731764436 pf=0.92 status=variable vmaxpu=1.5 vminpu=0.93 daily="RU4_DO" 
New "Load.BT_225591_M2" bus1="UC225591.1.4" phases=1 conn=delta model=3 kv=0.22 kw = 0.11166275731764436 pf=0.92 status=variable vmaxpu=1.5 vminpu=0.93 daily="RU4_DO"
 
New "Load.BT_225593_M1" bus1="UC225593.2.4" phases=1 conn=delta model=2 kv=0.22 kw = 0.14867063853062026 pf=0.92 status=variable vmaxpu=1.5 vminpu=0.93 daily="RU5_DO" 
New "Load.BT_225593_M2" bus1="UC225593.2.4" phases=1 conn=delta model=3 kv=0.22 kw = 0.14867063853062026 pf=0.92 status=variable vmaxpu=1.5 vminpu=0.93 daily="RU5_DO"
 
New "Load.BT_205706_M1" bus1="UC205706.1.2.4" phases=2 conn=delta model=2 kv=0.44 kw = 0.2843250358332232 pf=0.92 status=variable vmaxpu=1.5 vminpu=0.93 daily="RU8_DO" 
New "Load.BT_205706_M2" bus1="UC205706.1.2.4" phases=2 conn=delta model=3 kv=0.44 kw = 0.2843250358332232 pf=0.92 status=variable vmaxpu=1.5 vminpu=0.93 daily="RU8_DO"
 
New "Load.BT_205707_M1" bus1="UC205707.1.4" phases=1 conn=delta model=2 kv=0.22 kw = 0.0025998006970178707 pf=0.92 status=variable vmaxpu=1.5 vminpu=0.93 daily="CO3_DO" 
New "Load.BT_205707_M2" bus1="UC205707.1.4" phases=1 conn=delta model=3 kv=0.22 kw = 0.0025998006970178707 pf=0.92 status=variable vmaxpu=1.5 vminpu=0.93 daily="CO3_DO"
 
New "Load.BT_225285_M1" bus1="UC225285.1.4" phases=1 conn=delta model=2 kv=0.22 kw = 0.04487020553548119 pf=0.92 status=variable vmaxpu=1.5 vminpu=0.93 daily="RU2_DO" 
New "Load.BT_225285_M2" bus1="UC225285.1.4" phases=1 conn=delta model=3 kv=0.22 kw = 0.04487020553548119 pf=0.92 status=variable vmaxpu=1.5 vminpu=0.93 daily="RU2_DO"
 
New "Load.BT_225286_M1" bus1="UC225286.1.4" phases=1 conn=delta model=2 kv=0.22 kw = 0.0 pf=0.92 status=variable vmaxpu=1.5 vminpu=0.93 daily="RU7_DO" 
New "Load.BT_225286_M2" bus1="UC225286.1.4" phases=1 conn=delta model=3 kv=0.22 kw = 0.0 pf=0.92 status=variable vmaxpu=1.5 vminpu=0.93 daily="RU7_DO"
 
New "Load.BT_225289_M1" bus1="UC225289.1.4" phases=1 conn=delta model=2 kv=0.22 kw = 0.20622401126231618 pf=0.92 status=variable vmaxpu=1.5 vminpu=0.93 daily="RU4_DO" 
New "Load.BT_225289_M2" bus1="UC225289.1.4" phases=1 conn=delta model=3 kv=0.22 kw = 0.20622401126231618 pf=0.92 status=variable vmaxpu=1.5 vminpu=0.93 daily="RU4_DO"
 
New "Load.BT_225290_M1" bus1="UC225290.2.4" phases=1 conn=delta model=2 kv=0.22 kw = 0.09818163701186175 pf=0.92 status=variable vmaxpu=1.5 vminpu=0.93 daily="RU3_DO" 
New "Load.BT_225290_M2" bus1="UC225290.2.4" phases=1 conn=delta model=3 kv=0.22 kw = 0.09818163701186175 pf=0.92 status=variable vmaxpu=1.5 vminpu=0.93 daily="RU3_DO"
 
New "Load.BT_205695_M1" bus1="UC205695.1.4" phases=1 conn=delta model=2 kv=0.22 kw = 0.3357607207075752 pf=0.92 status=variable vmaxpu=1.5 vminpu=0.93 daily="RU8_DO" 
New "Load.BT_205695_M2" bus1="UC205695.1.4" phases=1 conn=delta model=3 kv=0.22 kw = 0.3357607207075752 pf=0.92 status=variable vmaxpu=1.5 vminpu=0.93 daily="RU8_DO"
 
New "Load.BT_205699_M1" bus1="UC205699.1.4" phases=1 conn=delta model=2 kv=0.22 kw = 0.0 pf=0.92 status=variable vmaxpu=1.5 vminpu=0.93 daily="RU8_DO" 
New "Load.BT_205699_M2" bus1="UC205699.1.4" phases=1 conn=delta model=3 kv=0.22 kw = 0.0 pf=0.92 status=variable vmaxpu=1.5 vminpu=0.93 daily="RU8_DO"
 
New "Load.BT_205700_M1" bus1="UC205700.1.4" phases=1 conn=delta model=2 kv=0.22 kw = 0.32246870892557067 pf=0.92 status=variable vmaxpu=1.5 vminpu=0.93 daily="RU5_DO" 
New "Load.BT_205700_M2" bus1="UC205700.1.4" phases=1 conn=delta model=3 kv=0.22 kw = 0.32246870892557067 pf=0.92 status=variable vmaxpu=1.5 vminpu=0.93 daily="RU5_DO"
 
New "Load.BT_205703_M1" bus1="UC205703.1.4" phases=1 conn=delta model=2 kv=0.22 kw = 5.299757066270623e-05 pf=0.92 status=variable vmaxpu=1.5 vminpu=0.93 daily="RU1_DO" 
New "Load.BT_205703_M2" bus1="UC205703.1.4" phases=1 conn=delta model=3 kv=0.22 kw = 5.299757066270623e-05 pf=0.92 status=variable vmaxpu=1.5 vminpu=0.93 daily="RU1_DO"
 
New "Load.BT_218342_M1" bus1="UC218342.1.4" phases=1 conn=delta model=2 kv=0.22 kw = 0.09657319551796269 pf=0.92 status=variable vmaxpu=1.5 vminpu=0.93 daily="RU4_DO" 
New "Load.BT_218342_M2" bus1="UC218342.1.4" phases=1 conn=delta model=3 kv=0.22 kw = 0.09657319551796269 pf=0.92 status=variable vmaxpu=1.5 vminpu=0.93 daily="RU4_DO"
 
New "Load.BT_224968_M1" bus1="UC224968.2.4" phases=1 conn=delta model=2 kv=0.22 kw = 0.009274574865973589 pf=0.92 status=variable vmaxpu=1.5 vminpu=0.93 daily="RU1_DO" 
New "Load.BT_224968_M2" bus1="UC224968.2.4" phases=1 conn=delta model=3 kv=0.22 kw = 0.009274574865973589 pf=0.92 status=variable vmaxpu=1.5 vminpu=0.93 daily="RU1_DO"
 
New "Load.BT_225281_M1" bus1="UC225281.1.4" phases=1 conn=delta model=2 kv=0.22 kw = 0.12363920690490227 pf=0.92 status=variable vmaxpu=1.5 vminpu=0.93 daily="RE6_DO" 
New "Load.BT_225281_M2" bus1="UC225281.1.4" phases=1 conn=delta model=3 kv=0.22 kw = 0.12363920690490227 pf=0.92 status=variable vmaxpu=1.5 vminpu=0.93 daily="RE6_DO"
 
New "Load.BT_218304_M1" bus1="UC218304.1.2.3.4" phases=3 conn=delta model=2 kv=0.38 kw = 0.11902679558930405 pf=0.92 status=variable vmaxpu=1.5 vminpu=0.93 daily="RU7_DO" 
New "Load.BT_218304_M2" bus1="UC218304.1.2.3.4" phases=3 conn=delta model=3 kv=0.38 kw = 0.11902679558930405 pf=0.92 status=variable vmaxpu=1.5 vminpu=0.93 daily="RU7_DO"
 
New "Load.BT_218305_M1" bus1="UC218305.3.4" phases=1 conn=delta model=2 kv=0.22 kw = 0.00826762102338217 pf=0.92 status=variable vmaxpu=1.5 vminpu=0.93 daily="RU1_DO" 
New "Load.BT_218305_M2" bus1="UC218305.3.4" phases=1 conn=delta model=3 kv=0.22 kw = 0.00826762102338217 pf=0.92 status=variable vmaxpu=1.5 vminpu=0.93 daily="RU1_DO"
 
New "Load.BT_218309_M1" bus1="UC218309.1.4" phases=1 conn=delta model=2 kv=0.22 kw = 0.007896638028743228 pf=0.92 status=variable vmaxpu=1.5 vminpu=0.93 daily="RU1_DO" 
New "Load.BT_218309_M2" bus1="UC218309.1.4" phases=1 conn=delta model=3 kv=0.22 kw = 0.007896638028743228 pf=0.92 status=variable vmaxpu=1.5 vminpu=0.93 daily="RU1_DO"
 
New "Load.BT_218318_M1" bus1="UC218318.1.4" phases=1 conn=delta model=2 kv=0.22 kw = 0.1842678336717547 pf=0.92 status=variable vmaxpu=1.5 vminpu=0.93 daily="RU5_DO" 
New "Load.BT_218318_M2" bus1="UC218318.1.4" phases=1 conn=delta model=3 kv=0.22 kw = 0.1842678336717547 pf=0.92 status=variable vmaxpu=1.5 vminpu=0.93 daily="RU5_DO"
 
New "Load.BT_218320_M1" bus1="UC218320.1.4" phases=1 conn=delta model=2 kv=0.22 kw = 0.019081752676488716 pf=0.92 status=variable vmaxpu=1.5 vminpu=0.93 daily="CO4_DO" 
New "Load.BT_218320_M2" bus1="UC218320.1.4" phases=1 conn=delta model=3 kv=0.22 kw = 0.019081752676488716 pf=0.92 status=variable vmaxpu=1.5 vminpu=0.93 daily="CO4_DO"
 
New "Load.BT_218323_M1" bus1="UC218323.1.4" phases=1 conn=delta model=2 kv=0.22 kw = 0.21225983598218884 pf=0.92 status=variable vmaxpu=1.5 vminpu=0.93 daily="RU4_DO" 
New "Load.BT_218323_M2" bus1="UC218323.1.4" phases=1 conn=delta model=3 kv=0.22 kw = 0.21225983598218884 pf=0.92 status=variable vmaxpu=1.5 vminpu=0.93 daily="RU4_DO"
 
New "Load.BT_223646_M1" bus1="UC223646.1.4" phases=1 conn=delta model=2 kv=0.22 kw = 0.06131119687672621 pf=0.92 status=variable vmaxpu=1.5 vminpu=0.93 daily="RU2_DO" 
New "Load.BT_223646_M2" bus1="UC223646.1.4" phases=1 conn=delta model=3 kv=0.22 kw = 0.06131119687672621 pf=0.92 status=variable vmaxpu=1.5 vminpu=0.93 daily="RU2_DO"
 
New "Load.BT_205687_M1" bus1="UC205687.1.4" phases=1 conn=delta model=2 kv=0.22 kw = 0.07843722952385643 pf=0.92 status=variable vmaxpu=1.5 vminpu=0.93 daily="RU2_DO" 
New "Load.BT_205687_M2" bus1="UC205687.1.4" phases=1 conn=delta model=3 kv=0.22 kw = 0.07843722952385643 pf=0.92 status=variable vmaxpu=1.5 vminpu=0.93 daily="RU2_DO"
 
New "Load.BT_205689_M1" bus1="UC205689.1.4" phases=1 conn=delta model=2 kv=0.22 kw = 0.07021673385323393 pf=0.92 status=variable vmaxpu=1.5 vminpu=0.93 daily="RU2_DO" 
New "Load.BT_205689_M2" bus1="UC205689.1.4" phases=1 conn=delta model=3 kv=0.22 kw = 0.07021673385323393 pf=0.92 status=variable vmaxpu=1.5 vminpu=0.93 daily="RU2_DO"
 
New "Load.BT_205691_M1" bus1="UC205691.1.2.4" phases=2 conn=delta model=2 kv=0.44 kw = 0.1156555551999285 pf=0.92 status=variable vmaxpu=1.5 vminpu=0.93 daily="RU6_DO" 
New "Load.BT_205691_M2" bus1="UC205691.1.2.4" phases=2 conn=delta model=3 kv=0.44 kw = 0.1156555551999285 pf=0.92 status=variable vmaxpu=1.5 vminpu=0.93 daily="RU6_DO"
 
New "Load.BT_223645_M1" bus1="UC223645.1.4" phases=1 conn=delta model=2 kv=0.22 kw = 0.05000691585006438 pf=0.92 status=variable vmaxpu=1.5 vminpu=0.93 daily="RU8_DO" 
New "Load.BT_223645_M2" bus1="UC223645.1.4" phases=1 conn=delta model=3 kv=0.22 kw = 0.05000691585006438 pf=0.92 status=variable vmaxpu=1.5 vminpu=0.93 daily="RU8_DO"
 
New "Load.BT_223633_M1" bus1="UC223633.1.4" phases=1 conn=delta model=2 kv=0.22 kw = 0.14257538270336012 pf=0.92 status=variable vmaxpu=1.5 vminpu=0.93 daily="RU6_DO" 
New "Load.BT_223633_M2" bus1="UC223633.1.4" phases=1 conn=delta model=3 kv=0.22 kw = 0.14257538270336012 pf=0.92 status=variable vmaxpu=1.5 vminpu=0.93 daily="RU6_DO"
 
New "Load.BT_223634_M1" bus1="UC223634.1.4" phases=1 conn=delta model=2 kv=0.22 kw = 0.05466415797434705 pf=0.92 status=variable vmaxpu=1.5 vminpu=0.93 daily="RU7_DO" 
New "Load.BT_223634_M2" bus1="UC223634.1.4" phases=1 conn=delta model=3 kv=0.22 kw = 0.05466415797434705 pf=0.92 status=variable vmaxpu=1.5 vminpu=0.93 daily="RU7_DO"
 
New "Load.BT_223644_M1" bus1="UC223644.1.4" phases=1 conn=delta model=2 kv=0.22 kw = 0.07954435050454155 pf=0.92 status=variable vmaxpu=1.5 vminpu=0.93 daily="RE5_DO" 
New "Load.BT_223644_M2" bus1="UC223644.1.4" phases=1 conn=delta model=3 kv=0.22 kw = 0.07954435050454155 pf=0.92 status=variable vmaxpu=1.5 vminpu=0.93 daily="RE5_DO"
 
New "Load.BT_217026_M1" bus1="UC217026.1.4" phases=1 conn=delta model=2 kv=0.22 kw = 0.07582447719022334 pf=0.92 status=variable vmaxpu=1.5 vminpu=0.93 daily="RU7_DO" 
New "Load.BT_217026_M2" bus1="UC217026.1.4" phases=1 conn=delta model=3 kv=0.22 kw = 0.07582447719022334 pf=0.92 status=variable vmaxpu=1.5 vminpu=0.93 daily="RU7_DO"
 
New "Load.BT_217031_M1" bus1="UC217031.1.4" phases=1 conn=delta model=2 kv=0.22 kw = 0.08704685491987278 pf=0.92 status=variable vmaxpu=1.5 vminpu=0.93 daily="RE2_DO" 
New "Load.BT_217031_M2" bus1="UC217031.1.4" phases=1 conn=delta model=3 kv=0.22 kw = 0.08704685491987278 pf=0.92 status=variable vmaxpu=1.5 vminpu=0.93 daily="RE2_DO"
 
New "Load.BT_218301_M1" bus1="UC218301.1.2.4" phases=2 conn=delta model=2 kv=0.44 kw = 0.14888367642352582 pf=0.92 status=variable vmaxpu=1.5 vminpu=0.93 daily="RU4_DO" 
New "Load.BT_218301_M2" bus1="UC218301.1.2.4" phases=2 conn=delta model=3 kv=0.44 kw = 0.14888367642352582 pf=0.92 status=variable vmaxpu=1.5 vminpu=0.93 daily="RU4_DO"
 
New "Load.BT_223630_M1" bus1="UC223630.2.4" phases=1 conn=delta model=2 kv=0.22 kw = 0.08064920183117215 pf=0.92 status=variable vmaxpu=1.5 vminpu=0.93 daily="RU3_DO" 
New "Load.BT_223630_M2" bus1="UC223630.2.4" phases=1 conn=delta model=3 kv=0.22 kw = 0.08064920183117215 pf=0.92 status=variable vmaxpu=1.5 vminpu=0.93 daily="RU3_DO"
 
New "Load.BT_223631_M1" bus1="UC223631.2.4" phases=1 conn=delta model=2 kv=0.22 kw = 0.08674166639994636 pf=0.92 status=variable vmaxpu=1.5 vminpu=0.93 daily="RU6_DO" 
New "Load.BT_223631_M2" bus1="UC223631.2.4" phases=1 conn=delta model=3 kv=0.22 kw = 0.08674166639994636 pf=0.92 status=variable vmaxpu=1.5 vminpu=0.93 daily="RU6_DO"
 
New "Load.BT_222260_M1" bus1="UC222260.1.4" phases=1 conn=delta model=2 kv=0.22 kw = 0.2548055105578435 pf=0.92 status=variable vmaxpu=1.5 vminpu=0.93 daily="RU7_DO" 
New "Load.BT_222260_M2" bus1="UC222260.1.4" phases=1 conn=delta model=3 kv=0.22 kw = 0.2548055105578435 pf=0.92 status=variable vmaxpu=1.5 vminpu=0.93 daily="RU7_DO"
 
New "Load.BT_222263_M1" bus1="UC222263.1.4" phases=1 conn=delta model=2 kv=0.22 kw = 0.08734276650036416 pf=0.92 status=variable vmaxpu=1.5 vminpu=0.93 daily="RU2_DO" 
New "Load.BT_222263_M2" bus1="UC222263.1.4" phases=1 conn=delta model=3 kv=0.22 kw = 0.08734276650036416 pf=0.92 status=variable vmaxpu=1.5 vminpu=0.93 daily="RU2_DO"
 
New "Load.BT_205680_M1" bus1="UC205680.1.2.3.4" phases=3 conn=delta model=2 kv=0.38 kw = 0.14009094705352523 pf=0.92 status=variable vmaxpu=1.5 vminpu=0.93 daily="RU2_DO" 
New "Load.BT_205680_M2" bus1="UC205680.1.2.3.4" phases=3 conn=delta model=3 kv=0.38 kw = 0.14009094705352523 pf=0.92 status=variable vmaxpu=1.5 vminpu=0.93 daily="RU2_DO"
 
New "Load.BT_205681_M1" bus1="UC205681.1.2.4" phases=2 conn=delta model=2 kv=0.44 kw = 0.5886528380064722 pf=0.92 status=variable vmaxpu=1.5 vminpu=0.93 daily="RU8_DO" 
New "Load.BT_205681_M2" bus1="UC205681.1.2.4" phases=2 conn=delta model=3 kv=0.44 kw = 0.5886528380064722 pf=0.92 status=variable vmaxpu=1.5 vminpu=0.93 daily="RU8_DO"
 
New "Load.BT_205675_M1" bus1="UC205675.2.4" phases=1 conn=delta model=2 kv=0.22 kw = 0.01884557389824764 pf=0.92 status=variable vmaxpu=1.5 vminpu=0.93 daily="RU5_DO" 
New "Load.BT_205675_M2" bus1="UC205675.2.4" phases=1 conn=delta model=3 kv=0.22 kw = 0.01884557389824764 pf=0.92 status=variable vmaxpu=1.5 vminpu=0.93 daily="RU5_DO"
 
New "Load.BT_238952_M1" bus1="UC238952.2.4" phases=1 conn=delta model=2 kv=0.22 kw = 0.0009254538347928852 pf=0.92 status=variable vmaxpu=1.5 vminpu=0.93 daily="RE3_DO" 
New "Load.BT_238952_M2" bus1="UC238952.2.4" phases=1 conn=delta model=3 kv=0.22 kw = 0.0009254538347928852 pf=0.92 status=variable vmaxpu=1.5 vminpu=0.93 daily="RE3_DO"
 
New "Load.BT_205735_M1" bus1="UC205735.3.1.4" phases=2 conn=delta model=2 kv=0.38 kw = 0.678440660336915 pf=0.92 status=variable vmaxpu=1.5 vminpu=0.93 daily="RU5_DO" 
New "Load.BT_205735_M2" bus1="UC205735.3.1.4" phases=2 conn=delta model=3 kv=0.38 kw = 0.678440660336915 pf=0.92 status=variable vmaxpu=1.5 vminpu=0.93 daily="RU5_DO"
 
New "Load.BT_238959_M1" bus1="UC238959.1.4" phases=1 conn=delta model=2 kv=0.22 kw = 0.0468082144380448 pf=0.92 status=variable vmaxpu=1.5 vminpu=0.93 daily="RE2_DO" 
New "Load.BT_238959_M2" bus1="UC238959.1.4" phases=1 conn=delta model=3 kv=0.22 kw = 0.0468082144380448 pf=0.92 status=variable vmaxpu=1.5 vminpu=0.93 daily="RE2_DO"
 
New "Load.BT_221689_M1" bus1="UC221689.1.4" phases=1 conn=delta model=2 kv=0.22 kw = 0.37288946245494187 pf=0.92 status=variable vmaxpu=1.5 vminpu=0.93 daily="RU6_DO" 
New "Load.BT_221689_M2" bus1="UC221689.1.4" phases=1 conn=delta model=3 kv=0.22 kw = 0.37288946245494187 pf=0.92 status=variable vmaxpu=1.5 vminpu=0.93 daily="RU6_DO"
 
New "Load.BT_238205_M1" bus1="UC238205.2.4" phases=1 conn=delta model=2 kv=0.22 kw = 0.022489105277887604 pf=0.92 status=variable vmaxpu=1.5 vminpu=0.93 daily="RE1_DO" 
New "Load.BT_238205_M2" bus1="UC238205.2.4" phases=1 conn=delta model=3 kv=0.22 kw = 0.022489105277887604 pf=0.92 status=variable vmaxpu=1.5 vminpu=0.93 daily="RE1_DO"
 
New "Load.BT_235961_M1" bus1="UC235961.1.4" phases=1 conn=delta model=2 kv=0.22 kw = 0.07776839056546916 pf=0.92 status=variable vmaxpu=1.5 vminpu=0.93 daily="RU6_DO" 
New "Load.BT_235961_M2" bus1="UC235961.1.4" phases=1 conn=delta model=3 kv=0.22 kw = 0.07776839056546916 pf=0.92 status=variable vmaxpu=1.5 vminpu=0.93 daily="RU6_DO"
 
New "Load.BT_237573_M1" bus1="UC237573.1.4" phases=1 conn=delta model=2 kv=0.22 kw = 0.0569804143372412 pf=0.92 status=variable vmaxpu=1.5 vminpu=0.93 daily="RU3_DO" 
New "Load.BT_237573_M2" bus1="UC237573.1.4" phases=1 conn=delta model=3 kv=0.22 kw = 0.0569804143372412 pf=0.92 status=variable vmaxpu=1.5 vminpu=0.93 daily="RU3_DO"
 
New "Load.BT_237359_M1" bus1="UC237359.2.4" phases=1 conn=delta model=2 kv=0.22 kw = 0.08288999801211029 pf=0.92 status=variable vmaxpu=1.5 vminpu=0.93 daily="RU2_DO" 
New "Load.BT_237359_M2" bus1="UC237359.2.4" phases=1 conn=delta model=3 kv=0.22 kw = 0.08288999801211029 pf=0.92 status=variable vmaxpu=1.5 vminpu=0.93 daily="RU2_DO"
 
New "Load.BT_237167_M1" bus1="UC237167.2.4" phases=1 conn=delta model=2 kv=0.22 kw = 0.14238878056453774 pf=0.92 status=variable vmaxpu=1.5 vminpu=0.93 daily="RU5_DO" 
New "Load.BT_237167_M2" bus1="UC237167.2.4" phases=1 conn=delta model=3 kv=0.22 kw = 0.14238878056453774 pf=0.92 status=variable vmaxpu=1.5 vminpu=0.93 daily="RU5_DO"
 
New "Load.BT_236486_M1" bus1="UC236486.1.4" phases=1 conn=delta model=2 kv=0.22 kw = 0.1415783520550849 pf=0.92 status=variable vmaxpu=1.5 vminpu=0.93 daily="RU6_DO" 
New "Load.BT_236486_M2" bus1="UC236486.1.4" phases=1 conn=delta model=3 kv=0.22 kw = 0.1415783520550849 pf=0.92 status=variable vmaxpu=1.5 vminpu=0.93 daily="RU6_DO"
 
New "Load.BT_2836677_M1" bus1="UC2836677.1.4" phases=1 conn=delta model=2 kv=0.22 kw = 0.05548834577670193 pf=0.92 status=variable vmaxpu=1.5 vminpu=0.93 daily="RU2_DO" 
New "Load.BT_2836677_M2" bus1="UC2836677.1.4" phases=1 conn=delta model=3 kv=0.22 kw = 0.05548834577670193 pf=0.92 status=variable vmaxpu=1.5 vminpu=0.93 daily="RU2_DO"
 
New "Load.BT_2836674_M1" bus1="UC2836674.2.4" phases=1 conn=delta model=2 kv=0.22 kw = 0.04985153241376228 pf=0.92 status=variable vmaxpu=1.5 vminpu=0.93 daily="RU6_DO" 
New "Load.BT_2836674_M2" bus1="UC2836674.2.4" phases=1 conn=delta model=3 kv=0.22 kw = 0.04985153241376228 pf=0.92 status=variable vmaxpu=1.5 vminpu=0.93 daily="RU6_DO"
 
New "Load.BT_235585_M1" bus1="UC235585.1.2.4" phases=2 conn=delta model=2 kv=0.44 kw = 0.7437848636133333 pf=0.92 status=variable vmaxpu=1.5 vminpu=0.93 daily="RU6_DO" 
New "Load.BT_235585_M2" bus1="UC235585.1.2.4" phases=2 conn=delta model=3 kv=0.44 kw = 0.7437848636133333 pf=0.92 status=variable vmaxpu=1.5 vminpu=0.93 daily="RU6_DO"
 
New "Load.BT_2805422_M1" bus1="UC2805422.1.2.4" phases=2 conn=delta model=2 kv=0.44 kw = 0.019065205111464385 pf=0.92 status=variable vmaxpu=1.5 vminpu=0.93 daily="CO3_DO" 
New "Load.BT_2805422_M2" bus1="UC2805422.1.2.4" phases=2 conn=delta model=3 kv=0.44 kw = 0.019065205111464385 pf=0.92 status=variable vmaxpu=1.5 vminpu=0.93 daily="CO3_DO"
 
New "Load.BT_2835970_M1" bus1="UC2835970.1.4" phases=1 conn=delta model=2 kv=0.22 kw = 0.04110247835311254 pf=0.92 status=variable vmaxpu=1.5 vminpu=0.93 daily="RU2_DO" 
New "Load.BT_2835970_M2" bus1="UC2835970.1.4" phases=1 conn=delta model=3 kv=0.22 kw = 0.04110247835311254 pf=0.92 status=variable vmaxpu=1.5 vminpu=0.93 daily="RU2_DO"
 
New "Load.BT_236232_M1" bus1="UC236232.1.2.3.4" phases=3 conn=delta model=2 kv=0.38 kw = 0.31295396797530933 pf=0.92 status=variable vmaxpu=1.5 vminpu=0.93 daily="RU3_DO" 
New "Load.BT_236232_M2" bus1="UC236232.1.2.3.4" phases=3 conn=delta model=3 kv=0.38 kw = 0.31295396797530933 pf=0.92 status=variable vmaxpu=1.5 vminpu=0.93 daily="RU3_DO"
 
New "Load.BT_205652_M1" bus1="UC205652.1.4" phases=1 conn=delta model=2 kv=0.22 kw = 0.21148921819144573 pf=0.92 status=variable vmaxpu=1.5 vminpu=0.93 daily="RU5_DO" 
New "Load.BT_205652_M2" bus1="UC205652.1.4" phases=1 conn=delta model=3 kv=0.22 kw = 0.21148921819144573 pf=0.92 status=variable vmaxpu=1.5 vminpu=0.93 daily="RU5_DO"
 
New "Load.BT_205761_M1" bus1="UC205761.1.2.3.4" phases=3 conn=delta model=2 kv=0.38 kw = 1.1758769069886568 pf=0.92 status=variable vmaxpu=1.5 vminpu=0.93 daily="RU8_DO" 
New "Load.BT_205761_M2" bus1="UC205761.1.2.3.4" phases=3 conn=delta model=3 kv=0.38 kw = 1.1758769069886568 pf=0.92 status=variable vmaxpu=1.5 vminpu=0.93 daily="RU8_DO"
 
New "Load.BT_225860_M1" bus1="UC225860.2.4" phases=1 conn=delta model=2 kv=0.22 kw = 0.12700633522957835 pf=0.92 status=variable vmaxpu=1.5 vminpu=0.93 daily="RE8_DO" 
New "Load.BT_225860_M2" bus1="UC225860.2.4" phases=1 conn=delta model=3 kv=0.22 kw = 0.12700633522957835 pf=0.92 status=variable vmaxpu=1.5 vminpu=0.93 daily="RE8_DO"
 
New "Load.BT_235692_M1" bus1="UC235692.1.4" phases=1 conn=delta model=2 kv=0.22 kw = 0.11592306528790494 pf=0.92 status=variable vmaxpu=1.5 vminpu=0.93 daily="RE7_DO" 
New "Load.BT_235692_M2" bus1="UC235692.1.4" phases=1 conn=delta model=3 kv=0.22 kw = 0.11592306528790494 pf=0.92 status=variable vmaxpu=1.5 vminpu=0.93 daily="RE7_DO"
 
New "Load.BT_235691_M1" bus1="UC235691.2.4" phases=1 conn=delta model=2 kv=0.22 kw = 0.05532839326549946 pf=0.92 status=variable vmaxpu=1.5 vminpu=0.93 daily="RU4_DO" 
...